Version 4
SHEET 1 880 680
WIRE 208 128 112 128
WIRE 352 128 272 128
WIRE 464 128 352 128
WIRE 352 160 352 128
WIRE 464 160 464 128
WIRE 112 176 112 128
WIRE 112 272 112 208
WIRE 320 272 112 272
WIRE 352 272 352 224
WIRE 352 272 320 272
WIRE 464 272 464 240
WIRE 464 272 352 272
FLAG 320 272 0
SYMBOL MiniSyms4\\voltage- 112 192 R0
WINDOW 123 0 0 Left 2
WINDOW 39 0 0 Left 2
SYMATTR InstName V1
SYMATTR Value SINE(0 5 50)
SYMBOL diode 208 144 R270
WINDOW 0 32 32 VTop 2
WINDOW 3 0 32 VBottom 2
SYMATTR InstName D1
SYMBOL cap 336 160 R0
SYMATTR InstName C1
SYMATTR Value 0.01m
SYMBOL res 448 144 R0
SYMATTR InstName R1
SYMATTR Value 20k
TEXT 104 296 Left 2 !.tran 100m
